          14

C   -1.129195   -1.386558   -0.095757
C   -1.309689    0.109522   -0.134347
C    0.008099    0.872714    0.034017
C   -0.261887    2.389900    0.063771
H    0.672023    2.900915   -0.111041
H   -0.693157    2.708361    1.004172
H   -0.940741    2.654847   -0.730561
H   -0.384619   -1.698502   -0.820880
H   -2.088432   -1.848942   -0.307320
H   -0.790072   -1.668108    0.921799
H   -1.925668    0.359239    0.731498
H   -1.771898    0.396011   -1.097294
H    0.683097    0.613752   -0.790525
H    0.485791    0.591818    0.983721
